data_Al\(1\0\0)
_audit_creation_date              2023-07-27
_audit_creation_method            'Materials Studio'
_symmetry_space_group_name_H-M    'P1'
_symmetry_Int_Tables_number       1
_symmetry_cell_setting            triclinic
loop_
_symmetry_equiv_pos_as_xyz
  x,y,z
_cell_length_a                    8.5679
_cell_length_b                    8.5679
_cell_length_c                    18.1137
_cell_angle_alpha                 90.0000
_cell_angle_beta                  90.0000
_cell_angle_gamma                 90.0000
loop_
_atom_site_label
_atom_site_type_symbol
_atom_site_fract_x
_atom_site_fract_y
_atom_site_fract_z
_atom_site_U_iso_or_equiv
_atom_site_adp_type
_atom_site_occupancy
Al1    Al    0.00000   0.00000   0.50099   0.00000  Uiso   1.00
Al2    Al    0.00000   0.00000   0.72397   0.00000  Uiso   1.00
Al3    Al    0.16667   0.16667   0.38950   0.00000  Uiso   1.00
Al4    Al    0.16667   0.16667   0.61248   0.00000  Uiso   1.00
Al5    Al    0.33333   0.00000   0.50099   0.00000  Uiso   1.00
Al6    Al    0.33333   0.00000   0.72397   0.00000  Uiso   1.00
Al7    Al    0.50000   0.16667   0.38950   0.00000  Uiso   1.00
Al8    Al    0.50000   0.16667   0.61248   0.00000  Uiso   1.00
Al9    Al    0.66667   0.00000   0.50099   0.00000  Uiso   1.00
Al10   Al    0.66667   0.00000   0.72397   0.00000  Uiso   1.00
Al11   Al    0.83333   0.16667   0.38950   0.00000  Uiso   1.00
Al12   Al    0.83333   0.16667   0.61248   0.00000  Uiso   1.00
Al13   Al    0.00000   0.33333   0.50099   0.00000  Uiso   1.00
Al14   Al    0.00000   0.33333   0.72397   0.00000  Uiso   1.00
Al15   Al    0.16667   0.50000   0.38950   0.00000  Uiso   1.00
Al16   Al    0.16667   0.50000   0.61248   0.00000  Uiso   1.00
Al17   Al    0.33333   0.33333   0.50099   0.00000  Uiso   1.00
Al18   Al    0.33333   0.33333   0.72397   0.00000  Uiso   1.00
Al19   Al    0.50000   0.50000   0.38950   0.00000  Uiso   1.00
Al20   Al    0.50000   0.50000   0.61248   0.00000  Uiso   1.00
Al21   Al    0.66667   0.33333   0.50099   0.00000  Uiso   1.00
Al22   Al    0.66667   0.33333   0.72397   0.00000  Uiso   1.00
Al23   Al    0.83333   0.50000   0.38950   0.00000  Uiso   1.00
Al24   Al    0.83333   0.50000   0.61248   0.00000  Uiso   1.00
Al25   Al    0.00000   0.66667   0.50099   0.00000  Uiso   1.00
Al26   Al    0.00000   0.66667   0.72397   0.00000  Uiso   1.00
Al27   Al    0.16667   0.83333   0.38950   0.00000  Uiso   1.00
Al28   Al    0.16667   0.83333   0.61248   0.00000  Uiso   1.00
Al29   Al    0.33333   0.66667   0.50099   0.00000  Uiso   1.00
Al30   Al    0.33333   0.66667   0.72397   0.00000  Uiso   1.00
Al31   Al    0.50000   0.83333   0.38950   0.00000  Uiso   1.00
Al32   Al    0.50000   0.83333   0.61248   0.00000  Uiso   1.00
Al33   Al    0.66667   0.66667   0.50099   0.00000  Uiso   1.00
Al34   Al    0.66667   0.66667   0.72397   0.00000  Uiso   1.00
Al35   Al    0.83333   0.83333   0.38950   0.00000  Uiso   1.00
Al36   Al    0.83333   0.83333   0.61248   0.00000  Uiso   1.00
Al37   Al    0.33679   0.31865   0.27603   0.00000  Uiso   1.00
