data_Ag2O
_audit_creation_date              2023-07-27
_audit_creation_method            'Materials Studio'
_symmetry_space_group_name_H-M    'P1'
_symmetry_Int_Tables_number       1
_symmetry_cell_setting            triclinic
loop_
_symmetry_equiv_pos_as_xyz
  x,y,z
_cell_length_a                    14.2620
_cell_length_b                    14.2620
_cell_length_c                    4.7540
_cell_angle_alpha                 90.0000
_cell_angle_beta                  90.0000
_cell_angle_gamma                 90.0000
loop_
_atom_site_label
_atom_site_type_symbol
_atom_site_fract_x
_atom_site_fract_y
_atom_site_fract_z
_atom_site_U_iso_or_equiv
_atom_site_adp_type
_atom_site_occupancy
Ag1    Ag    0.08333   0.08333   0.75000   0.00000  Uiso   1.00
Ag2    Ag    0.25000   0.25000   0.75000   0.00000  Uiso   1.00
Ag3    Ag    0.25000   0.08333   0.25000   0.00000  Uiso   1.00
Ag4    Ag    0.08333   0.25000   0.25000   0.00000  Uiso   1.00
O5     O     0.00000   0.00000   0.00000   0.00000  Uiso   1.00
O6     O     0.16667   0.16667   0.50000   0.00000  Uiso   1.00
Ag7    Ag    0.41667   0.08333   0.75000   0.00000  Uiso   1.00
Ag8    Ag    0.58333   0.25000   0.75000   0.00000  Uiso   1.00
Ag9    Ag    0.58333   0.08333   0.25000   0.00000  Uiso   1.00
Ag10   Ag    0.41667   0.25000   0.25000   0.00000  Uiso   1.00
O11    O     0.33333   0.00000   0.00000   0.00000  Uiso   1.00
O12    O     0.50000   0.16667   0.50000   0.00000  Uiso   1.00
Ag13   Ag    0.75000   0.08333   0.75000   0.00000  Uiso   1.00
Ag14   Ag    0.91667   0.25000   0.75000   0.00000  Uiso   1.00
Ag15   Ag    0.91667   0.08333   0.25000   0.00000  Uiso   1.00
Ag16   Ag    0.75000   0.25000   0.25000   0.00000  Uiso   1.00
O17    O     0.66667   0.00000   0.00000   0.00000  Uiso   1.00
O18    O     0.83333   0.16667   0.50000   0.00000  Uiso   1.00
Ag19   Ag    0.08333   0.41667   0.75000   0.00000  Uiso   1.00
Ag20   Ag    0.25000   0.58333   0.75000   0.00000  Uiso   1.00
Ag21   Ag    0.25000   0.41667   0.25000   0.00000  Uiso   1.00
Ag22   Ag    0.08333   0.58333   0.25000   0.00000  Uiso   1.00
O23    O     0.00000   0.33333   0.00000   0.00000  Uiso   1.00
O24    O     0.16667   0.50000   0.50000   0.00000  Uiso   1.00
Ag25   Ag    0.41667   0.41667   0.75000   0.00000  Uiso   1.00
Ag26   Ag    0.58333   0.58333   0.75000   0.00000  Uiso   1.00
Ag27   Ag    0.58333   0.41667   0.25000   0.00000  Uiso   1.00
Ag28   Ag    0.41667   0.58333   0.25000   0.00000  Uiso   1.00
O29    O     0.33333   0.33333   0.00000   0.00000  Uiso   1.00
O30    O     0.50000   0.50000   0.50000   0.00000  Uiso   1.00
Ag31   Ag    0.75000   0.41667   0.75000   0.00000  Uiso   1.00
Ag32   Ag    0.91667   0.58333   0.75000   0.00000  Uiso   1.00
Ag33   Ag    0.91667   0.41667   0.25000   0.00000  Uiso   1.00
Ag34   Ag    0.75000   0.58333   0.25000   0.00000  Uiso   1.00
O35    O     0.66667   0.33333   0.00000   0.00000  Uiso   1.00
O36    O     0.83333   0.50000   0.50000   0.00000  Uiso   1.00
Ag37   Ag    0.08333   0.75000   0.75000   0.00000  Uiso   1.00
Ag38   Ag    0.25000   0.91667   0.75000   0.00000  Uiso   1.00
Ag39   Ag    0.25000   0.75000   0.25000   0.00000  Uiso   1.00
Ag40   Ag    0.08333   0.91667   0.25000   0.00000  Uiso   1.00
O41    O     0.00000   0.66667   0.00000   0.00000  Uiso   1.00
O42    O     0.16667   0.83333   0.50000   0.00000  Uiso   1.00
Ag43   Ag    0.41667   0.75000   0.75000   0.00000  Uiso   1.00
Ag44   Ag    0.58333   0.91667   0.75000   0.00000  Uiso   1.00
Ag45   Ag    0.58333   0.75000   0.25000   0.00000  Uiso   1.00
Ag46   Ag    0.41667   0.91667   0.25000   0.00000  Uiso   1.00
O47    O     0.33333   0.66667   0.00000   0.00000  Uiso   1.00
O48    O     0.50000   0.83333   0.50000   0.00000  Uiso   1.00
Ag49   Ag    0.75000   0.75000   0.75000   0.00000  Uiso   1.00
Ag50   Ag    0.91667   0.91667   0.75000   0.00000  Uiso   1.00
Ag51   Ag    0.91667   0.75000   0.25000   0.00000  Uiso   1.00
Ag52   Ag    0.75000   0.91667   0.25000   0.00000  Uiso   1.00
O53    O     0.66667   0.66667   0.00000   0.00000  Uiso   1.00
O54    O     0.83333   0.83333   0.50000   0.00000  Uiso   1.00
Li55   Li    0.33153   0.67036   0.44189   0.00000  Uiso   1.00
loop_
_geom_bond_atom_site_label_1
_geom_bond_atom_site_label_2
_geom_bond_distance
_geom_bond_site_symmetry_2
_ccdc_geom_bond_type
Ag1    O5      2.059   1_556 S
Ag1    O6      2.059   .     S
Ag2    O6      2.059   .     S
Ag2    O29     2.059   1_556 S
Ag3    O6      2.059   .     S
Ag3    O11     2.059   .     S
Ag4    O6      2.059   .     S
Ag4    O23     2.059   .     S
O5     Ag1     2.059   1_554 S
O5     Ag15    2.059   1_455 S
O5     Ag40    2.059   1_545 S
O5     Ag50    2.059   1_444 S
Ag7    O11     2.059   1_556 S
Ag7    O12     2.059   .     S
Ag8    O12     2.059   .     S
Ag8    O35     2.059   1_556 S
Ag9    O12     2.059   .     S
Ag9    O17     2.059   .     S
Ag10   O12     2.059   .     S
Ag10   O29     2.059   .     S
O11    Ag7     2.059   1_554 S
O11    Ag38    2.059   1_544 S
O11    Ag46    2.059   1_545 S
Ag13   O17     2.059   1_556 S
Ag13   O18     2.059   .     S
Ag14   O18     2.059   .     S
Ag14   O23     2.059   1_656 S
Ag15   O5      2.059   1_655 S
Ag15   O18     2.059   .     S
Ag16   O18     2.059   .     S
Ag16   O35     2.059   .     S
O17    Ag13    2.059   1_554 S
O17    Ag44    2.059   1_544 S
O17    Ag52    2.059   1_545 S
Ag19   O23     2.059   1_556 S
Ag19   O24     2.059   .     S
Ag20   O24     2.059   .     S
Ag20   O47     2.059   1_556 S
Ag21   O24     2.059   .     S
Ag21   O29     2.059   .     S
Ag22   O24     2.059   .     S
Ag22   O41     2.059   .     S
O23    Ag19    2.059   1_554 S
O23    Ag14    2.059   1_454 S
O23    Ag33    2.059   1_455 S
Ag25   O29     2.059   1_556 S
Ag25   O30     2.059   .     S
Ag26   O30     2.059   .     S
Ag26   O53     2.059   1_556 S
Ag27   O30     2.059   .     S
Ag27   O35     2.059   .     S
Ag28   O30     2.059   .     S
Ag28   O47     2.059   .     S
O29    Ag2     2.059   1_554 S
O29    Ag25    2.059   1_554 S
Ag31   O35     2.059   1_556 S
Ag31   O36     2.059   .     S
Ag32   O36     2.059   .     S
Ag32   O41     2.059   1_656 S
Ag33   O23     2.059   1_655 S
Ag33   O36     2.059   .     S
Ag34   O36     2.059   .     S
Ag34   O53     2.059   .     S
O35    Ag8     2.059   1_554 S
O35    Ag31    2.059   1_554 S
Ag37   O41     2.059   1_556 S
Ag37   O42     2.059   .     S
Ag38   O11     2.059   1_566 S
Ag38   O42     2.059   .     S
Ag39   O42     2.059   .     S
Ag39   O47     2.059   .     S
Ag40   O5      2.059   1_565 S
Ag40   O42     2.059   .     S
O41    Ag37    2.059   1_554 S
O41    Ag32    2.059   1_454 S
O41    Ag51    2.059   1_455 S
Ag43   O47     2.059   1_556 S
Ag43   O48     2.059   .     S
Ag44   O17     2.059   1_566 S
Ag44   O48     2.059   .     S
Ag45   O48     2.059   .     S
Ag45   O53     2.059   .     S
Ag46   O11     2.059   1_565 S
Ag46   O48     2.059   .     S
O47    Ag43    2.059   1_554 S
O47    Ag20    2.059   1_554 S
O47    Li55    2.102   .     S
Ag49   O53     2.059   1_556 S
Ag49   O54     2.059   .     S
Ag50   O5      2.059   1_666 S
Ag50   O54     2.059   .     S
Ag51   O41     2.059   1_655 S
Ag51   O54     2.059   .     S
Ag52   O17     2.059   1_565 S
Ag52   O54     2.059   .     S
O53    Ag49    2.059   1_554 S
O53    Ag26    2.059   1_554 S
