data_TiO2
_audit_creation_date              2023-07-27
_audit_creation_method            'Materials Studio'
_symmetry_space_group_name_H-M    'P1'
_symmetry_Int_Tables_number       1
_symmetry_cell_setting            triclinic
loop_
_symmetry_equiv_pos_as_xyz
  x,y,z
_cell_length_a                    12.3072
_cell_length_b                    3.7669
_cell_length_c                    6.6162
_cell_angle_alpha                 90.0000
_cell_angle_beta                  106.9451
_cell_angle_gamma                 90.0000
loop_
_atom_site_label
_atom_site_type_symbol
_atom_site_fract_x
_atom_site_fract_y
_atom_site_fract_z
_atom_site_U_iso_or_equiv
_atom_site_adp_type
_atom_site_occupancy
Ti1    Ti    0.09993   0.00000   0.71040   0.00000  Uiso   1.00
Ti2    Ti    0.19529   0.00000   0.28376   0.00000  Uiso   1.00
O3     O     0.05835   0.00000   0.36998   0.00000  Uiso   1.00
O4     O     0.13281   0.00000   0.00471   0.00000  Uiso   1.00
Ti5    Ti    0.59993   0.50000   0.71040   0.00000  Uiso   1.00
Ti6    Ti    0.69529   0.50000   0.28376   0.00000  Uiso   1.00
O7     O     0.55835   0.50000   0.36998   0.00000  Uiso   1.00
O8     O     0.63281   0.50000   0.00471   0.00000  Uiso   1.00
Ti9    Ti    0.90007   0.00000   0.28960   0.00000  Uiso   1.00
Ti10   Ti    0.80471   0.00000   0.71624   0.00000  Uiso   1.00
O11    O     0.94165   0.00000   0.63002   0.00000  Uiso   1.00
O12    O     0.86719   0.00000   0.99529   0.00000  Uiso   1.00
Ti13   Ti    0.40007   0.50000   0.28960   0.00000  Uiso   1.00
Ti14   Ti    0.30471   0.50000   0.71624   0.00000  Uiso   1.00
O15    O     0.44165   0.50000   0.63002   0.00000  Uiso   1.00
O16    O     0.36719   0.50000   0.99529   0.00000  Uiso   1.00
O17    O     0.13807   0.50000   0.70660   0.00000  Uiso   1.00
O18    O     0.23651   0.50000   0.34750   0.00000  Uiso   1.00
O19    O     0.63807  -0.00000   0.70660   0.00000  Uiso   1.00
O20    O     0.73651  -0.00000   0.34750   0.00000  Uiso   1.00
O21    O     0.86193   0.50000   0.29340   0.00000  Uiso   1.00
O22    O     0.76349   0.50000   0.65250   0.00000  Uiso   1.00
O23    O     0.36193  -0.00000   0.29340   0.00000  Uiso   1.00
O24    O     0.26349  -0.00000   0.65250   0.00000  Uiso   1.00
Li25   Li    0.45119   0.88036   0.63550   0.00000  Uiso   1.00
loop_
_geom_bond_atom_site_label_1
_geom_bond_atom_site_label_2
_geom_bond_distance
_geom_bond_site_symmetry_2
_ccdc_geom_bond_type
Ti1    O3      2.159   .     S
Ti1    O4      1.870   1_556 S
Ti1    O17     1.943   .     S
Ti1    O17     1.943   1_545 S
Ti1    O11     1.864   1_455 S
Ti1    O24     2.156   .     S
Ti2    O3      1.930   .     S
Ti2    O4      1.781   .     S
Ti2    O18     1.964   .     S
Ti2    O18     1.964   1_545 S
Ti2    O23     2.033   .     S
O3     Ti9     1.864   1_455 S
O4     Ti1     1.870   1_554 S
Ti5    O7      2.159   .     S
Ti5    O8      1.870   1_556 S
Ti5    O19     1.943   1_565 S
Ti5    O15     1.864   .     S
Ti5    O22     2.156   .     S
Ti6    O7      1.930   .     S
Ti6    O8      1.781   .     S
Ti6    O20     1.964   1_565 S
Ti6    O21     2.033   .     S
O7     Ti13    1.864   .     S
O8     Ti5     1.870   1_554 S
Ti9    O11     2.159   .     S
Ti9    O12     1.870   1_554 S
Ti9    O21     1.943   .     S
Ti9    O21     1.943   1_545 S
Ti9    O3      1.864   1_655 S
Ti9    O20     2.156   .     S
Ti10   O11     1.930   .     S
Ti10   O12     1.781   .     S
Ti10   O22     1.964   .     S
Ti10   O22     1.964   1_545 S
Ti10   O19     2.033   .     S
O11    Ti1     1.864   1_655 S
O12    Ti9     1.870   1_556 S
Ti13   O15     2.159   .     S
Ti13   O16     1.870   1_554 S
Ti13   O23     1.943   1_565 S
Ti13   O18     2.156   .     S
Ti14   O15     1.930   .     S
Ti14   O16     1.781   .     S
Ti14   O24     1.964   1_565 S
Ti14   O17     2.033   .     S
O15    Li25    1.437   .     S
O16    Ti13    1.870   1_556 S
O17    Ti1     1.943   1_565 S
O18    Ti2     1.964   1_565 S
O19    Ti5     1.943   1_545 S
O20    Ti6     1.964   1_545 S
O21    Ti9     1.943   1_565 S
O22    Ti10    1.964   1_565 S
O23    Ti13    1.943   1_545 S
O24    Ti14    1.964   1_545 S
